

!1717071717170017051717171717171717171717б1717170017ANSYS1717171706171700 APDL171717171717
!TIME:2022.01.01 | By:1717071717


FINISH                                                                                                
/CLEAR
/prep7
/COM, Structural
/units,si

et, 1, 44		!171717171717171717171717170117171706171702171717171717061717171702beam44
et, 2, 10		!17171717171717171717061717171702link10
et, 3, 21		!17171717171717171717061717171702mass21
et, 4, 4		!17171717071517061717171702beam4
et, 5, mpc184 $keyopt, 5, 1, 1 	$keyopt, 5, 2, 1	!1717171717171717171717
et, 6, combin14     !171717嵯17021706

et,7,combin14     !Z1717178717
et,8,combin40     !X178717
et,9,combin40     !Y178717

keyopt,7,1,0
keyopt,7,2,3      !UZ1717170317

keyopt,8,3,1      !UX1717170317
keyopt,9,3,2      !UY1717170317

r,3001,3340e3       !171717170217
r,3002,1e7,0.2,,,,  !171717170217


mp, ex, 1, 2.0e11	!Q370qD1717Q345qD17171717001717
mp, dens, 1, 7850	!17171717171017
mp, prxy, 1, 0.3	!171717E170817
mp, alpx, 1, 1.18e-5	!17171717171717171717031717

mp, ex, 2, 3.55e10	!C5017171717171717171717001717-17171717171717171717
mp, dens, 2, 2600	!17171717171017
mp, prxy, 2, 0.2	!171717E170817
mp, alpx, 2, 1e-5	!17171717171717171717031717

mp, ex, 3, 3.55e10	!C4517171717171717171717001717-1717
mp, dens, 3, 2600	!17171717171017
mp, prxy, 3, 0.2	!171717E170817
mp, alpx, 3, 1e-5	!17171717171717171717031717

mp, ex, 4, 3.55e10	!C4017171717171717171717001717-171706
mp, dens, 4, 2600	!17171717171017
mp, prxy, 4, 0.2	!171717E170817
mp, alpx, 4, 1e-5	!17171717171717171717031717

mp, ex, 5, 3.55e10	!C3517171717171717171717001717-0217171717
mp, dens, 5, 2600	!17171717171017
mp, prxy, 5, 0.2	!171717E170817
mp, alpx, 5, 1e-5	!17171717171717171717031717

mp, ex, 6, 2.05e20	!170717
mp, dens, 6, 0		!17171717171017
mp, prxy, 6, 0.2	!171717E170817

mp, ex, 7, 1.95e11	!17171717
mp, dens, 7, 7850	!17171717171017
mp, prxy, 7, 0.3	!171717E170817
mp, alpx, 7, 1.2e-5	!17171717171717171717031717



R, 101, 0.0078539816, 0.0000049087, 0.0000049087, 0.1, 0.1, , 
RMORE, , 0.000009817477 !1707170617171717

R, 102, 3.14159265358979, 0.785398163397448, 0.785398163397448, 1, 1, 1.5707963267949
RMODIF, 102, 21, 1, 1	!17121702171717170617171717

R, 103, 4.90873852123405, 1.91747598485705, 1.91747598485705, 1.25, 1.25, 3.8349519697141
RMODIF, 103, 21, 1.25, 1.25    !17ж1702171717170617171717

!б171717170617171717
R, 110, 0.00785398163397448, 0.0037262442188481
R, 111, 0.00785398163397448, 0.00356103362426295
R, 112, 0.00785398163397448, 0.0034278092914114
R, 113, 0.00785398163397448, 0.00419547957301757
R, 114, 0.00785398163397448, 0.0040166049442938
R, 115, 0.00785398163397448, 0.0040566654080184
R, 116, 0.00785398163397448, 0.00325700886467863
R, 117, 0.00785398163397448, 0.00365450803962034
R, 118, 0.00785398163397448, 0.00441969395138313
R, 119, 0.00785398163397448, 0.00428243251753607
R, 120, 0.00785398163397448, 0.00398275540517767
R, 121, 0.00785398163397448, 0.00287317372387554

R, 1, 3.41851, 449.829, 8.74588, 2.22449, 22.25, 0.000932765
RMODIF, 1, 21, 1.7545, 22.25
R, 2, 2.95338, 384.991623109376, 8.06303, 2.053796303, 22.25, 0.0149636
RMODIF, 2, 21, 1.86112, 22.25
R, 3, 2.68585, 361.311, 6.62035, 2.16088, 22.25, 0.000329894
RMODIF, 3, 21, 1.69766, 22.25

R, 6, 448.032751195, 23146.3967678609, 12002.2654058416, 9, 12.5, 27025.5686500792
RMODIF, 6, 21, 9, 12.5           !9#171710#171717091706

R, 7, 107.531790430383, 1542.64579122808, 595.730371312229, 6.6, 4.1, 1483.1456837907
RMODIF, 7, 21, 6.6, 4.1          !8#171711#1712091706

R, 8, 13.633854996882, 6.455386490752, 34.832540253184, 3, 1.25, 20.8808200519311
RMODIF, 8, 21, 3, 1.25          !8#171711#171217 170117

R, 9, 21.133854996882, 10.361636487168, 127.495858013312, 4.5, 1.25, 36.6050287593973
RMORE, 13.633854996882, 6.455386490752, 34.832540253184, 3, 1.25, 20.8808200519311
RMODIF, 9, 21, 4.5, 1.25, 3, 1.25   !8#171711#171217 1702171717171717

R, 10, 68.45201715674, 338.885137977344, 427.420074741248, 4.5, 4, 696.758833271052
RMODIF, 10, 21, 4.5, 4              !9#171710#17ж17 170117

R, 11, 53.2100058832, 315.454632108032, 413.159730766592, 4.5, 4, 647.611935652916
RMORE, 68.45201715674, 338.885137977344, 427.420074741248, 4.5, 4, 696.758833271052
RMODIF, 11, 21, 4.5, 4, 4.5, 4       !9#171710#17ж17 17010517171717

R, 12, 32.796826120958, 250.84243310592, 305.454216715776, 4.5, 4, 497.985151099399
RMODIF, 12, 21, 4.5, 4              !9#171710#17ж17 17171717

R, 13, 89.202882996988, 1163.41068201574, 656.055491991552, 4.5, 6, 1506.88502685997
RMORE, 32.796826120958, 250.84243310592, 305.454216715776, 4.5, 4, 497.985151099399
RMODIF, 13, 21, 4.5, 6, 4.5, 4           !9#171710#17ж17 1702171717171717

R, 14, 104.502668792019, 1187.8338523822, 671.17590761216, 4.5, 6, 1546.49125572742
RMODIF, 14, 21, 4.5, 6                !9#171710#17ж17 170217

R, 15, 2.7279292136, 22.230956359936, 5.73766777016, 2.25, 4.392307609, 0.00168760336491946
RMODIF, 15, 21, 2.25, 4.426892391       !1717171709171717171717

!1717171717050217
!0317171717
!8#
R, 201, 33300000
R, 202, 132793000
R, 203, 313760000
R, 204, 412426666.666667
R, 205, 511093333.333333
R, 206, 1106300000
R, 207, 313575000
R, 208, 359825000
R, 209, 406075000
R, 210, 1252829866.66667
R, 211, 1091253333.33333
R, 212, 1189920000
R, 213, 1288586666.66667
R, 214, 1215573333.33333
R, 215, 2531984000
R, 216, 2734004000
R, 217, 2936024000
R, 218, 3789895200
R, 219, 14859200000
R, 220, 13061000000
R, 221, 26426880000
R, 222, 9434260000
R, 223, 36845833333.3333


!9#
R, 401, 32258250
R, 402, 294056000
R, 403, 525336000
R, 404, 1331925000
R, 405, 288731250
R, 406, 344043750
R, 407, 416481000
R, 408, 1183776000
R, 409, 1353696000
R, 410, 1523616000
R, 411, 1693536000
R, 412, 1733939200
R, 413, 9478350000
R, 414, 10274850000
R, 415, 8041110000
R, 416, 2330146000
R, 417, 2687184500
R, 418, 17027400000
R, 419, 16850400000
R, 420, 28620900000
R, 421, 28150080000
R, 422, 67372100000


!10#
R, 601, 35400000
R, 602, 76198500
R, 603, 502208000
R, 604, 789372800
R, 605, 379665000
R, 606, 459315000
R, 607, 418428000
R, 608, 491175000
R, 609, 1427328000
R, 610, 1597248000
R, 611, 1767168000
R, 612, 1590640000
R, 613, 9743850000
R, 614, 9788100000
R, 615, 2580878300
R, 616, 17561940000
R, 617, 23739240000
R, 618, 29441000000
R, 619, 32214000000


!11#
R, 801, 46250000
R, 802, 92500000
R, 803, 138750000
R, 804, 299946666.666667
R, 805, 363093333.333333
R, 806, 321900000
R, 807, 388500000
R, 808, 455100000
R, 809, 425500000
R, 810, 1231360000
R, 811, 1373440000
R, 812, 1795733333.33333
R, 813, 1989120000
R, 814, 7122500000
R, 815, 7585000000
R, 816, 1716800000
R, 817, 2202240000
R, 818, 3333330000
R, 819, 3535350000
R, 820, 3086416666.66667
! ... 5 like lines cut

!171717171717
!8#
R, 301, 31500000
R, 302, 125615000
R, 303, 296800000
R, 304, 390133333.333333
R, 305, 483466666.666667
R, 306, 1046500000
R, 307, 296625000
R, 308, 340375000
R, 309, 384125000
R, 310, 1185109333.33333
R, 311, 1032266666.66667
R, 312, 1125600000
R, 313, 1218933333.33333
R, 314, 1149866666.66667
R, 315, 2395120000
R, 316, 2586220000
R, 317, 2777320000
R, 318, 3585036000
R, 319, 14056000000
R, 320, 12355000000
R, 321, 24998400000
R, 322, 8924300000
R, 323, 34854166666.6667


!9#
R, 501, 32258250
R, 502, 294056000
R, 503, 525336000
R, 504, 1331925000
R, 505, 288731250
R, 506, 344043750
R, 507, 416481000
R, 508, 1183776000
R, 509, 1353696000
R, 510, 1523616000
R, 511, 1693536000
R, 512, 1733939200
R, 513, 9478350000
R, 514, 10274850000
R, 515, 8041110000
R, 516, 2330146000
R, 517, 2687184500
R, 518, 17027400000
R, 519, 16850400000
R, 520, 28620900000
R, 521, 28150080000
R, 522, 67372100000


!10#
R, 701, 35400000
R, 702, 76198500
R, 703, 502208000
R, 704, 789372800
R, 705, 379665000
R, 706, 459315000
R, 707, 418428000
R, 708, 491175000
R, 709, 1427328000
R, 710, 1597248000
R, 711, 1767168000
R, 712, 1590640000
R, 713, 9743850000
R, 714, 9788100000
R, 715, 2580878300
R, 716, 17561940000
R, 717, 23739240000
R, 718, 29441000000
R, 719, 32214000000


!11#
R, 901, 43750000
R, 902, 87500000
R, 903, 131250000
R, 904, 283733333.333333
R, 905, 343466666.666667
R, 906, 304500000
R, 907, 367500000
R, 908, 430500000
R, 909, 402500000
R, 910, 1164800000
R, 911, 1299200000
R, 912, 1698666666.66667
R, 913, 1881600000
R, 914, 6737500000
R, 915, 7175000000
R, 916, 1624000000
R, 917, 2083200000
R, 918, 3153150000
R, 919, 3344250000
R, 920, 2919583333.33333
! ... 5 like lines cut

!171717181717171717020617171717
R,1001,0,7143.57142857143
R,1002,0,8233.97959183673
R,1003,0,13979.5918367347
R,1004,0,172520.408163265
R,1005,0,376408.163265306
R,1006,0,250938.775510204
R,1007,0,11183.6734693878
R,1008,0,168244.897959184
R,1009,0,168244.897959184
R,1010,0,168244.897959184
R,1011,0,22367.3469387755
R,1012,0,11183.6734693878
R,1013,0,168244.897959184
R,1014,0,168244.897959184
R,1015,0,168244.897959184
R,1016,0,22367.3469387755
R,1017,0,11183.6734693878
R,1018,0,33551.0204081633
R,1019,0,33551.0204081633
R,1020,0,33551.0204081633
! ... 165 like lines cut

!171202170817171717171717170617171717
R,2001,96589.0506925998, ,73711.5452787596
R,2002,193264.728336493, ,147489.199566738
R,2003,193264.728336493, ,147489.199566738
R,2004,193178.1013852, ,147423.090557519
R,2005,193264.728336493, ,147489.199566738
R,2006,193264.728336493, ,147489.199566738
R,2007,193178.1013852, ,147423.090557519
R,2008,193178.1013852, ,147423.090557519
R,2009,193264.728336493, ,147489.199566738
R,2010,193264.728336493, ,147489.199566738
R,2011,191878.697115792, ,146431.45541924
R,2012,190579.292846385, ,145439.820280961
R,2013,190579.292846385, ,145439.820280961
R,2014,190579.292846385, ,145439.820280961
R,2015,95289.6464231926, ,72719.9101404803

!17171702170817171717171717170617171717
R,2016,692987.318748825, ,568500.371706299
R,2017,1385974.63749765, ,1137000.7434126
R,2018,1154978.86458138, ,947500.619510498
R,2019,923983.0916651, ,758000.495608399
R,2020,923983.0916651, ,758000.495608399
R,2021,923983.0916651, ,758000.495608399
R,2022,923983.0916651, ,758000.495608399
R,2023,1001135.67981914, ,821293.5369917
R,2024,1077826.27642734, ,884207.578127197
R,2025,1077826.27642734, ,884207.578127197
R,2026,1079674.24261067, ,885723.579118414
R,2027,1077826.27642734, ,884207.578127197
R,2028,1076440.30178984, ,883070.577383784
R,2029,539144.133986586, ,442293.289187501



!*DIM, BeamNode, ARRAY, 185, 1
!*VREAD, BeamNode(1,1), BeamNode, txt, ,
!(F5.1) 

!17171717171117
!*DO, i, 1, 185, 1
!N, i, BeamNode(i,1), 5.75, 0.1
!*ENDDO


N, 1, -170.0, 5.75, 0.001
N, 2, -169.5, 5.75, 0.001
N, 3, -168.9, 5.75, 0.001
N, 4, -167.9, 5.75, 0.001
N, 5, -166.8, 5.75, 0.001
N, 6, -164.4, 5.75, 0.001
N, 7, -162.8, 5.75, 0.001
N, 8, -162.0, 5.75, 0.001
N, 9, -159.6, 5.75, 0.001
N, 10, -157.2, 5.75, 0.001
N, 11, -154.8, 5.75, 0.001
N, 12, -153.2, 5.75, 0.001
N, 13, -152.4, 5.75, 0.001
N, 14, -150.0, 5.75, 0.001
N, 15, -147.6, 5.75, 0.001
N, 16, -145.2, 5.75, 0.001
N, 17, -143.6, 5.75, 0.001
N, 18, -142.8, 5.75, 0.001
N, 19, -140.4, 5.75, 0.001
N, 20, -138.0, 5.75, 0.001
! ... 165 like lines cut



!17171718171717171717171717171706
*do, j, 1, 185, 1
type, 3
real, 1000+j
e, j
*enddo


!17171717171717171117
NSEL, S, LOC, Y, 5.75
NGEN,2,800,ALL,,,,5


!1717171717171717171706
*do, j, 1, 36, 1
type, 1
mat, 1
real, 3
e, j, j+1, 800+j
*enddo

*do, j, 37, 42, 1
type, 1
mat, 1
real, 2
e, j, j+1, 800+j
*enddo

*do, j, 43, 48, 1
type, 1
mat, 1
real, 1
e, j, j+1, 800+j
*enddo

*do, j, 49, 54, 1
type, 1
mat, 1
real, 2
e, j, j+1, 800+j
*enddo


*do, j, 55, 130, 1
type, 1
mat, 1
real, 3
e, j, j+1, 800+j
*enddo

*do, j, 131, 137, 1
type, 1
mat, 1
real, 2
e, j, j+1, 800+j
*enddo

*do, j, 138, 143, 1
type, 1
mat, 1
real, 1
e, j, j+1, 800+j
*enddo

*do, j, 144, 149, 1
type, 1
mat, 1
real, 2
e, j, j+1, 800+j
*enddo

*do, j, 150, 184, 1
type, 1
mat, 1
real, 3
e, j, j+1, 800+j
*enddo



!1717041117
NSEL, S, LOC, Y, 5.75
NGEN,2,200,ALL,,,,,22.25
NGEN,2,400,ALL,,,,,-22.25

!171717171717071706
*do, j, 1, 185, 1
type, 4
mat, 6
real, 101
e, j+200, j
e, j+400, j
*enddo

!---------------------------!

!171717178#-L0217171717171706
!8#-L0217171717171117
N, 1000, -172.5, -18.653, -17.375
N, 1001, -172.5, -20.153, -17.375
N, 1002, -172.5, -23.503, -17.375
N, 1003, -172.5, -26.603, -17.375
N, 1004, -172.5, -29.103, -17.375
N, 1005, -172.5, -31.603, -17.375
N, 1006, -172.5, -33.603, -17.375
N, 1007, -172.5, -35.603, -17.375
N, 1008, -172.5, -38.103, -17.375
N, 1009, -172.5, -40.603, -17.375
N, 1010, -172.5, -43.453, -17.375
N, 1011, -172.5, -46.303, -17.375
N, 1012, -172.5, -48.803, -17.375
N, 1013, -172.5, -51.303, -17.375
N, 1014, -172.5, -53.653, -17.375
N, 1015, -172.5, -56.253, -17.375
N, 1016, -172.5, -59.253, -17.375
N, 1017, -172.5, -62.253, -17.375
N, 1018, -172.5, -65.553, -17.375
N, 1019, -172.5, -68.853, -17.375
! ... 5 like lines cut

N, 1100, -167.5, -18.653, -17.375
N, 1101, -167.5, -20.153, -17.375
N, 1102, -167.5, -23.503, -17.375
N, 1103, -167.5, -26.603, -17.375
N, 1104, -167.5, -29.103, -17.375
N, 1105, -167.5, -31.603, -17.375
N, 1106, -167.5, -33.603, -17.375
N, 1107, -167.5, -35.603, -17.375
N, 1108, -167.5, -38.103, -17.375
N, 1109, -167.5, -40.603, -17.375
N, 1110, -167.5, -43.453, -17.375
N, 1111, -167.5, -46.303, -17.375
N, 1112, -167.5, -48.803, -17.375
N, 1113, -167.5, -51.303, -17.375
N, 1114, -167.5, -53.653, -17.375
N, 1115, -167.5, -56.253, -17.375
N, 1116, -167.5, -59.253, -17.375
N, 1117, -167.5, -62.253, -17.375
N, 1118, -167.5, -65.553, -17.375
N, 1119, -167.5, -68.853, -17.375
! ... 5 like lines cut

N, 1200, -172.5, -18.653, -12.375
N, 1201, -172.5, -20.153, -12.375
N, 1202, -172.5, -23.503, -12.375
N, 1203, -172.5, -26.603, -12.375
N, 1204, -172.5, -29.103, -12.375
N, 1205, -172.5, -31.603, -12.375
N, 1206, -172.5, -33.603, -12.375
N, 1207, -172.5, -35.603, -12.375
N, 1208, -172.5, -38.103, -12.375
N, 1209, -172.5, -40.603, -12.375
N, 1210, -172.5, -43.453, -12.375
N, 1211, -172.5, -46.303, -12.375
N, 1212, -172.5, -48.803, -12.375
N, 1213, -172.5, -51.303, -12.375
N, 1214, -172.5, -53.653, -12.375
N, 1215, -172.5, -56.253, -12.375
N, 1216, -172.5, -59.253, -12.375
N, 1217, -172.5, -62.253, -12.375
N, 1218, -172.5, -65.553, -12.375
N, 1219, -172.5, -68.853, -12.375
! ... 5 like lines cut

N, 1300, -167.5, -18.653, -12.375
N, 1301, -167.5, -20.153, -12.375
N, 1302, -167.5, -23.503, -12.375
N, 1303, -167.5, -26.603, -12.375
N, 1304, -167.5, -29.103, -12.375
N, 1305, -167.5, -31.603, -12.375
N, 1306, -167.5, -33.603, -12.375
N, 1307, -167.5, -35.603, -12.375
N, 1308, -167.5, -38.103, -12.375
N, 1309, -167.5, -40.603, -12.375
N, 1310, -167.5, -43.453, -12.375
N, 1311, -167.5, -46.303, -12.375
N, 1312, -167.5, -48.803, -12.375
N, 1313, -167.5, -51.303, -12.375
N, 1314, -167.5, -53.653, -12.375
N, 1315, -167.5, -56.253, -12.375
N, 1316, -167.5, -59.253, -12.375
N, 1317, -167.5, -62.253, -12.375
N, 1318, -167.5, -65.553, -12.375
N, 1319, -167.5, -68.853, -12.375
! ... 5 like lines cut

N, 1400, -172.5, -18.653, -7.375
N, 1401, -172.5, -20.153, -7.375
N, 1402, -172.5, -23.503, -7.375
N, 1403, -172.5, -26.603, -7.375
N, 1404, -172.5, -29.103, -7.375
N, 1405, -172.5, -31.603, -7.375
N, 1406, -172.5, -33.603, -7.375
N, 1407, -172.5, -35.603, -7.375
N, 1408, -172.5, -38.103, -7.375
N, 1409, -172.5, -40.603, -7.375
N, 1410, -172.5, -43.453, -7.375
N, 1411, -172.5, -46.303, -7.375
N, 1412, -172.5, -48.803, -7.375
N, 1413, -172.5, -51.303, -7.375
N, 1414, -172.5, -53.653, -7.375
N, 1415, -172.5, -56.253, -7.375
N, 1416, -172.5, -59.253, -7.375
N, 1417, -172.5, -62.253, -7.375
N, 1418, -172.5, -65.553, -7.375
N, 1419, -172.5, -68.853, -7.375
! ... 5 like lines cut

N, 1500, -167.5, -18.653, -7.375
N, 1501, -167.5, -20.153, -7.375
N, 1502, -167.5, -23.503, -7.375
N, 1503, -167.5, -26.603, -7.375
N, 1504, -167.5, -29.103, -7.375
N, 1505, -167.5, -31.603, -7.375
N, 1506, -167.5, -33.603, -7.375
N, 1507, -167.5, -35.603, -7.375
N, 1508, -167.5, -38.103, -7.375
N, 1509, -167.5, -40.603, -7.375
N, 1510, -167.5, -43.453, -7.375
N, 1511, -167.5, -46.303, -7.375
N, 1512, -167.5, -48.803, -7.375
N, 1513, -167.5, -51.303, -7.375
N, 1514, -167.5, -53.653, -7.375
N, 1515, -167.5, -56.253, -7.375
N, 1516, -167.5, -59.253, -7.375
N, 1517, -167.5, -62.253, -7.375
N, 1518, -167.5, -65.553, -7.375
N, 1519, -167.5, -68.853, -7.375
! ... 5 like lines cut



*do, j, 1, 24, 1
type, 1
mat, 5
real, 102
e, j+999, j+1000
e, j+1099, j+1100
e, j+1199, j+1200
e, j+1299, j+1300
e, j+1399, j+1400
e, j+1499, j+1500
*enddo

!171717178#-R0217171717171706
N, 1600, -172.5, -18.653, 7.375
N, 1601, -172.5, -20.153, 7.375
N, 1602, -172.5, -23.503, 7.375
N, 1603, -172.5, -26.603, 7.375
N, 1604, -172.5, -29.103, 7.375
N, 1605, -172.5, -31.603, 7.375
N, 1606, -172.5, -33.603, 7.375
N, 1607, -172.5, -35.603, 7.375
N, 1608, -172.5, -38.103, 7.375
N, 1609, -172.5, -40.603, 7.375
N, 1610, -172.5, -43.453, 7.375
N, 1611, -172.5, -46.303, 7.375
N, 1612, -172.5, -48.803, 7.375
N, 1613, -172.5, -51.303, 7.375
N, 1614, -172.5, -53.653, 7.375
N, 1615, -172.5, -56.253, 7.375
N, 1616, -172.5, -59.253, 7.375
N, 1617, -172.5, -62.253, 7.375
N, 1618, -172.5, -65.553, 7.375
N, 1619, -172.5, -68.853, 7.375
! ... 5 like lines cut

N, 1700, -167.5, -18.653, 7.375
N, 1701, -167.5, -20.153, 7.375
N, 1702, -167.5, -23.503, 7.375
N, 1703, -167.5, -26.603, 7.375
N, 1704, -167.5, -29.103, 7.375
N, 1705, -167.5, -31.603, 7.375
N, 1706, -167.5, -33.603, 7.375
N, 1707, -167.5, -35.603, 7.375
N, 1708, -167.5, -38.103, 7.375
N, 1709, -167.5, -40.603, 7.375
N, 1710, -167.5, -43.453, 7.375
N, 1711, -167.5, -46.303, 7.375
N, 1712, -167.5, -48.803, 7.375
N, 1713, -167.5, -51.303, 7.375
N, 1714, -167.5, -53.653, 7.375
N, 1715, -167.5, -56.253, 7.375
N, 1716, -167.5, -59.253, 7.375
N, 1717, -167.5, -62.253, 7.375
N, 1718, -167.5, -65.553, 7.375
N, 1719, -167.5, -68.853, 7.375
! ... 5 like lines cut

N, 1800, -172.5, -18.653, 12.375
N, 1801, -172.5, -20.153, 12.375
N, 1802, -172.5, -23.503, 12.375
N, 1803, -172.5, -26.603, 12.375
N, 1804, -172.5, -29.103, 12.375
N, 1805, -172.5, -31.603, 12.375
N, 1806, -172.5, -33.603, 12.375
N, 1807, -172.5, -35.603, 12.375
N, 1808, -172.5, -38.103, 12.375
N, 1809, -172.5, -40.603, 12.375
N, 1810, -172.5, -43.453, 12.375
N, 1811, -172.5, -46.303, 12.375
N, 1812, -172.5, -48.803, 12.375
N, 1813, -172.5, -51.303, 12.375
N, 1814, -172.5, -53.653, 12.375
N, 1815, -172.5, -56.253, 12.375
N, 1816, -172.5, -59.253, 12.375
N, 1817, -172.5, -62.253, 12.375
N, 1818, -172.5, -65.553, 12.375
N, 1819, -172.5, -68.853, 12.375
! ... 5 like lines cut

N, 1900, -167.5, -18.653, 12.375
N, 1901, -167.5, -20.153, 12.375
N, 1902, -167.5, -23.503, 12.375
N, 1903, -167.5, -26.603, 12.375
N, 1904, -167.5, -29.103, 12.375
N, 1905, -167.5, -31.603, 12.375
N, 1906, -167.5, -33.603, 12.375
N, 1907, -167.5, -35.603, 12.375
N, 1908, -167.5, -38.103, 12.375
N, 1909, -167.5, -40.603, 12.375
N, 1910, -167.5, -43.453, 12.375
N, 1911, -167.5, -46.303, 12.375
N, 1912, -167.5, -48.803, 12.375
N, 1913, -167.5, -51.303, 12.375
N, 1914, -167.5, -53.653, 12.375
N, 1915, -167.5, -56.253, 12.375
N, 1916, -167.5, -59.253, 12.375
N, 1917, -167.5, -62.253, 12.375
N, 1918, -167.5, -65.553, 12.375
N, 1919, -167.5, -68.853, 12.375
! ... 5 like lines cut

N, 2000, -172.5, -18.653, 17.375
N, 2001, -172.5, -20.153, 17.375
N, 2002, -172.5, -23.503, 17.375
N, 2003, -172.5, -26.603, 17.375
N, 2004, -172.5, -29.103, 17.375
N, 2005, -172.5, -31.603, 17.375
N, 2006, -172.5, -33.603, 17.375
N, 2007, -172.5, -35.603, 17.375
N, 2008, -172.5, -38.103, 17.375
N, 2009, -172.5, -40.603, 17.375
N, 2010, -172.5, -43.453, 17.375
N, 2011, -172.5, -46.303, 17.375
N, 2012, -172.5, -48.803, 17.375
N, 2013, -172.5, -51.303, 17.375
N, 2014, -172.5, -53.653, 17.375
N, 2015, -172.5, -56.253, 17.375
N, 2016, -172.5, -59.253, 17.375
N, 2017, -172.5, -62.253, 17.375
N, 2018, -172.5, -65.553, 17.375
N, 2019, -172.5, -68.853, 17.375
! ... 5 like lines cut

N, 2100, -167.5, -18.653, 17.375
N, 2101, -167.5, -20.153, 17.375
N, 2102, -167.5, -23.503, 17.375
N, 2103, -167.5, -26.603, 17.375
N, 2104, -167.5, -29.103, 17.375
N, 2105, -167.5, -31.603, 17.375
N, 2106, -167.5, -33.603, 17.375
N, 2107, -167.5, -35.603, 17.375
N, 2108, -167.5, -38.103, 17.375
N, 2109, -167.5, -40.603, 17.375
N, 2110, -167.5, -43.453, 17.375
N, 2111, -167.5, -46.303, 17.375
N, 2112, -167.5, -48.803, 17.375
N, 2113, -167.5, -51.303, 17.375
N, 2114, -167.5, -53.653, 17.375
N, 2115, -167.5, -56.253, 17.375
N, 2116, -167.5, -59.253, 17.375
N, 2117, -167.5, -62.253, 17.375
N, 2118, -167.5, -65.553, 17.375
N, 2119, -167.5, -68.853, 17.375
! ... 5 like lines cut


*do, j, 1, 24, 1
type, 1
mat, 5
real, 102
e, j+1599, j+1600
e, j+1699, j+1700
e, j+1799, j+1800
e, j+1899, j+1900
e, j+1999, j+2000
e, j+2099, j+2100
*enddo


!1717171711#-L0217171717171706
N, 4600, 167.5, -18.653, -17.375
N, 4601, 167.5, -19.903, -17.375
N, 4602, 167.5, -22.403, -17.375
N, 4603, 167.5, -24.903, -17.375
N, 4604, 167.5, -27.153, -17.375
N, 4605, 167.5, -29.153, -17.375
N, 4606, 167.5, -31.653, -17.375
N, 4607, 167.5, -34.653, -17.375
N, 4608, 167.5, -37.653, -17.375
N, 4609, 167.5, -40.403, -17.375
N, 4610, 167.5, -43.153, -17.375
N, 4611, 167.5, -46.153, -17.375
N, 4612, 167.5, -49.403, -17.375
N, 4613, 167.5, -52.903, -17.375
N, 4614, 167.5, -55.903, -17.375
N, 4615, 167.5, -58.403, -17.375
N, 4616, 167.5, -60.903, -17.375
N, 4617, 167.5, -63.653, -17.375
N, 4618, 167.5, -66.653, -17.375
N, 4619, 167.5, -69.653, -17.375
! ... 7 like lines cut

N, 4700, 172.5, -18.653, -17.375
N, 4701, 172.5, -19.903, -17.375
N, 4702, 172.5, -22.403, -17.375
N, 4703, 172.5, -24.903, -17.375
N, 4704, 172.5, -27.153, -17.375
N, 4705, 172.5, -29.153, -17.375
N, 4706, 172.5, -31.653, -17.375
N, 4707, 172.5, -34.653, -17.375
N, 4708, 172.5, -37.653, -17.375
N, 4709, 172.5, -40.403, -17.375
N, 4710, 172.5, -43.153, -17.375
N, 4711, 172.5, -46.153, -17.375
N, 4712, 172.5, -49.403, -17.375
N, 4713, 172.5, -52.903, -17.375
N, 4714, 172.5, -55.903, -17.375
N, 4715, 172.5, -58.403, -17.375
N, 4716, 172.5, -60.903, -17.375
N, 4717, 172.5, -63.653, -17.375
N, 4718, 172.5, -66.653, -17.375
N, 4719, 172.5, -69.653, -17.375
! ... 7 like lines cut

N, 4800, 167.5, -18.653, -12.375
N, 4801, 167.5, -19.903, -12.375
N, 4802, 167.5, -22.403, -12.375
N, 4803, 167.5, -24.903, -12.375
N, 4804, 167.5, -27.153, -12.375
N, 4805, 167.5, -29.153, -12.375
N, 4806, 167.5, -31.653, -12.375
N, 4807, 167.5, -34.653, -12.375
N, 4808, 167.5, -37.653, -12.375
N, 4809, 167.5, -40.403, -12.375
N, 4810, 167.5, -43.153, -12.375
N, 4811, 167.5, -46.153, -12.375
N, 4812, 167.5, -49.403, -12.375
N, 4813, 167.5, -52.903, -12.375
N, 4814, 167.5, -55.903, -12.375
N, 4815, 167.5, -58.403, -12.375
N, 4816, 167.5, -60.903, -12.375
N, 4817, 167.5, -63.653, -12.375
N, 4818, 167.5, -66.653, -12.375
N, 4819, 167.5, -69.653, -12.375
! ... 7 like lines cut

N, 4900, 172.5, -18.653, -12.375
N, 4901, 172.5, -19.903, -12.375
N, 4902, 172.5, -22.403, -12.375
N, 4903, 172.5, -24.903, -12.375
N, 4904, 172.5, -27.153, -12.375
N, 4905, 172.5, -29.153, -12.375
N, 4906, 172.5, -31.653, -12.375
N, 4907, 172.5, -34.653, -12.375
N, 4908, 172.5, -37.653, -12.375
N, 4909, 172.5, -40.403, -12.375
N, 4910, 172.5, -43.153, -12.375
N, 4911, 172.5, -46.153, -12.375
N, 4912, 172.5, -49.403, -12.375
N, 4913, 172.5, -52.903, -12.375
N, 4914, 172.5, -55.903, -12.375
N, 4915, 172.5, -58.403, -12.375
N, 4916, 172.5, -60.903, -12.375
N, 4917, 172.5, -63.653, -12.375
N, 4918, 172.5, -66.653, -12.375
N, 4919, 172.5, -69.653, -12.375
! ... 7 like lines cut

N, 5000, 167.5, -18.653, -7.375
N, 5001, 167.5, -19.903, -7.375
N, 5002, 167.5, -22.403, -7.375
N, 5003, 167.5, -24.903, -7.375
N, 5004, 167.5, -27.153, -7.375
N, 5005, 167.5, -29.153, -7.375
N, 5006, 167.5, -31.653, -7.375
N, 5007, 167.5, -34.653, -7.375
N, 5008, 167.5, -37.653, -7.375
N, 5009, 167.5, -40.403, -7.375
N, 5010, 167.5, -43.153, -7.375
N, 5011, 167.5, -46.153, -7.375
N, 5012, 167.5, -49.403, -7.375
N, 5013, 167.5, -52.903, -7.375
N, 5014, 167.5, -55.903, -7.375
N, 5015, 167.5, -58.403, -7.375
N, 5016, 167.5, -60.903, -7.375
N, 5017, 167.5, -63.653, -7.375
N, 5018, 167.5, -66.653, -7.375
N, 5019, 167.5, -69.653, -7.375
! ... 7 like lines cut

N, 5100, 172.5, -18.653, -7.375
N, 5101, 172.5, -19.903, -7.375
N, 5102, 172.5, -22.403, -7.375
N, 5103, 172.5, -24.903, -7.375
N, 5104, 172.5, -27.153, -7.375
N, 5105, 172.5, -29.153, -7.375
N, 5106, 172.5, -31.653, -7.375
N, 5107, 172.5, -34.653, -7.375
N, 5108, 172.5, -37.653, -7.375
N, 5109, 172.5, -40.403, -7.375
N, 5110, 172.5, -43.153, -7.375
N, 5111, 172.5, -46.153, -7.375
N, 5112, 172.5, -49.403, -7.375
N, 5113, 172.5, -52.903, -7.375
N, 5114, 172.5, -55.903, -7.375
N, 5115, 172.5, -58.403, -7.375
N, 5116, 172.5, -60.903, -7.375
N, 5117, 172.5, -63.653, -7.375
N, 5118, 172.5, -66.653, -7.375
N, 5119, 172.5, -69.653, -7.375
! ... 7 like lines cut

*do, j, 1, 26, 1
type, 1
mat, 5
real, 102
e, j+4599, j+4600
e, j+4699, j+4700
e, j+4799, j+4800
e, j+4899, j+4900
e, j+4999, j+5000
e, j+5099, j+5100
*enddo



!1717171711#-R0217171717171706
N, 5200, 167.5, -18.653, 7.375
N, 5201, 167.5, -19.903, 7.375
N, 5202, 167.5, -22.403, 7.375
N, 5203, 167.5, -24.903, 7.375
N, 5204, 167.5, -27.153, 7.375
N, 5205, 167.5, -29.153, 7.375
N, 5206, 167.5, -31.653, 7.375
N, 5207, 167.5, -34.653, 7.375
N, 5208, 167.5, -37.653, 7.375
N, 5209, 167.5, -40.403, 7.375
N, 5210, 167.5, -43.153, 7.375
N, 5211, 167.5, -46.153, 7.375
N, 5212, 167.5, -49.403, 7.375
N, 5213, 167.5, -52.903, 7.375
N, 5214, 167.5, -55.903, 7.375
N, 5215, 167.5, -58.403, 7.375
N, 5216, 167.5, -60.903, 7.375
N, 5217, 167.5, -63.653, 7.375
N, 5218, 167.5, -66.653, 7.375
N, 5219, 167.5, -69.653, 7.375
! ... 7 like lines cut

N, 5300, 172.5, -18.653, 7.375
N, 5301, 172.5, -19.903, 7.375
N, 5302, 172.5, -22.403, 7.375
N, 5303, 172.5, -24.903, 7.375
N, 5304, 172.5, -27.153, 7.375
N, 5305, 172.5, -29.153, 7.375
N, 5306, 172.5, -31.653, 7.375
N, 5307, 172.5, -34.653, 7.375
N, 5308, 172.5, -37.653, 7.375
N, 5309, 172.5, -40.403, 7.375
N, 5310, 172.5, -43.153, 7.375
N, 5311, 172.5, -46.153, 7.375
N, 5312, 172.5, -49.403, 7.375
N, 5313, 172.5, -52.903, 7.375
N, 5314, 172.5, -55.903, 7.375
N, 5315, 172.5, -58.403, 7.375
N, 5316, 172.5, -60.903, 7.375
N, 5317, 172.5, -63.653, 7.375
N, 5318, 172.5, -66.653, 7.375
N, 5319, 172.5, -69.653, 7.375
! ... 7 like lines cut

N, 5400, 167.5, -18.653, 12.375
N, 5401, 167.5, -19.903, 12.375
N, 5402, 167.5, -22.403, 12.375
N, 5403, 167.5, -24.903, 12.375
N, 5404, 167.5, -27.153, 12.375
N, 5405, 167.5, -29.153, 12.375
N, 5406, 167.5, -31.653, 12.375
N, 5407, 167.5, -34.653, 12.375
N, 5408, 167.5, -37.653, 12.375
N, 5409, 167.5, -40.403, 12.375
N, 5410, 167.5, -43.153, 12.375
N, 5411, 167.5, -46.153, 12.375
N, 5412, 167.5, -49.403, 12.375
N, 5413, 167.5, -52.903, 12.375
N, 5414, 167.5, -55.903, 12.375
N, 5415, 167.5, -58.403, 12.375
N, 5416, 167.5, -60.903, 12.375
N, 5417, 167.5, -63.653, 12.375
N, 5418, 167.5, -66.653, 12.375
N, 5419, 167.5, -69.653, 12.375
! ... 7 like lines cut

N, 5500, 172.5, -18.653, 12.375
N, 5501, 172.5, -19.903, 12.375
N, 5502, 172.5, -22.403, 12.375
N, 5503, 172.5, -24.903, 12.375
N, 5504, 172.5, -27.153, 12.375
N, 5505, 172.5, -29.153, 12.375
N, 5506, 172.5, -31.653, 12.375
N, 5507, 172.5, -34.653, 12.375
N, 5508, 172.5, -37.653, 12.375
N, 5509, 172.5, -40.403, 12.375
N, 5510, 172.5, -43.153, 12.375
N, 5511, 172.5, -46.153, 12.375
N, 5512, 172.5, -49.403, 12.375
N, 5513, 172.5, -52.903, 12.375
N, 5514, 172.5, -55.903, 12.375
N, 5515, 172.5, -58.403, 12.375
N, 5516, 172.5, -60.903, 12.375
N, 5517, 172.5, -63.653, 12.375
N, 5518, 172.5, -66.653, 12.375
N, 5519, 172.5, -69.653, 12.375
! ... 7 like lines cut

N, 5600, 167.5, -18.653, 17.375
N, 5601, 167.5, -19.903, 17.375
N, 5602, 167.5, -22.403, 17.375
N, 5603, 167.5, -24.903, 17.375
N, 5604, 167.5, -27.153, 17.375
N, 5605, 167.5, -29.153, 17.375
N, 5606, 167.5, -31.653, 17.375
N, 5607, 167.5, -34.653, 17.375
N, 5608, 167.5, -37.653, 17.375
N, 5609, 167.5, -40.403, 17.375
N, 5610, 167.5, -43.153, 17.375
N, 5611, 167.5, -46.153, 17.375
N, 5612, 167.5, -49.403, 17.375
N, 5613, 167.5, -52.903, 17.375
N, 5614, 167.5, -55.903, 17.375
N, 5615, 167.5, -58.403, 17.375
N, 5616, 167.5, -60.903, 17.375
N, 5617, 167.5, -63.653, 17.375
N, 5618, 167.5, -66.653, 17.375
N, 5619, 167.5, -69.653, 17.375
! ... 7 like lines cut

N, 5700, 172.5, -18.653, 17.375
N, 5701, 172.5, -19.903, 17.375
N, 5702, 172.5, -22.403, 17.375
N, 5703, 172.5, -24.903, 17.375
N, 5704, 172.5, -27.153, 17.375
N, 5705, 172.5, -29.153, 17.375
N, 5706, 172.5, -31.653, 17.375
N, 5707, 172.5, -34.653, 17.375
N, 5708, 172.5, -37.653, 17.375
N, 5709, 172.5, -40.403, 17.375
N, 5710, 172.5, -43.153, 17.375
N, 5711, 172.5, -46.153, 17.375
N, 5712, 172.5, -49.403, 17.375
N, 5713, 172.5, -52.903, 17.375
N, 5714, 172.5, -55.903, 17.375
N, 5715, 172.5, -58.403, 17.375
N, 5716, 172.5, -60.903, 17.375
N, 5717, 172.5, -63.653, 17.375
N, 5718, 172.5, -66.653, 17.375
N, 5719, 172.5, -69.653, 17.375
! ... 7 like lines cut

*do, j, 1, 26, 1
type, 1
mat, 5
real, 102
e, j+5199, j+5200
e, j+5299, j+5300
e, j+5399, j+5400
e, j+5499, j+5500
e, j+5599, j+5600
e, j+5699, j+5700
*enddo



!171717179#0217171717171706
N, 2200, -100.5, -20, -7
N, 2201, -100.5, -21.35, -7
N, 2202, -100.5, -24.45, -7
N, 2203, -100.5, -27.95, -7
N, 2204, -100.5, -30.75, -7
N, 2205, -100.5, -33.05, -7
N, 2206, -100.5, -35.55, -7
N, 2207, -100.5, -38.1, -7
N, 2208, -100.5, -40.9, -7
N, 2209, -100.5, -43.9, -7
N, 2210, -100.5, -46.9, -7
N, 2211, -100.5, -49.9, -7
N, 2212, -100.5, -52.8, -7
N, 2213, -100.5, -55.7, -7
N, 2214, -100.5, -58.7, -7
N, 2215, -100.5, -61.3, -7
N, 2216, -100.5, -63.4, -7
N, 2217, -100.5, -65.5, -7
N, 2218, -100.5, -68.1, -7
N, 2219, -100.5, -71, -7
! ... 4 like lines cut

N, 2300, -93.5, -20, -7
N, 2301, -93.5, -21.35, -7
N, 2302, -93.5, -24.45, -7
N, 2303, -93.5, -27.95, -7
N, 2304, -93.5, -30.75, -7
N, 2305, -93.5, -33.05, -7
N, 2306, -93.5, -35.55, -7
N, 2307, -93.5, -38.1, -7
N, 2308, -93.5, -40.9, -7
N, 2309, -93.5, -43.9, -7
N, 2310, -93.5, -46.9, -7
N, 2311, -93.5, -49.9, -7
N, 2312, -93.5, -52.8, -7
N, 2313, -93.5, -55.7, -7
N, 2314, -93.5, -58.7, -7
N, 2315, -93.5, -61.3, -7
N, 2316, -93.5, -63.4, -7
N, 2317, -93.5, -65.5, -7
N, 2318, -93.5, -68.1, -7
N, 2319, -93.5, -71, -7
! ... 4 like lines cut

N, 2400, -86.5, -20, -7
N, 2401, -86.5, -21.35, -7
N, 2402, -86.5, -24.45, -7
N, 2403, -86.5, -27.95, -7
N, 2404, -86.5, -30.75, -7
N, 2405, -86.5, -33.05, -7
N, 2406, -86.5, -35.55, -7
N, 2407, -86.5, -38.1, -7
N, 2408, -86.5, -40.9, -7
N, 2409, -86.5, -43.9, -7
N, 2410, -86.5, -46.9, -7
N, 2411, -86.5, -49.9, -7
N, 2412, -86.5, -52.8, -7
N, 2413, -86.5, -55.7, -7
N, 2414, -86.5, -58.7, -7
N, 2415, -86.5, -61.3, -7
N, 2416, -86.5, -63.4, -7
N, 2417, -86.5, -65.5, -7
N, 2418, -86.5, -68.1, -7
N, 2419, -86.5, -71, -7
! ... 4 like lines cut

N, 2500, -79.5, -20, -7
N, 2501, -79.5, -21.35, -7
N, 2502, -79.5, -24.45, -7
N, 2503, -79.5, -27.95, -7
N, 2504, -79.5, -30.75, -7
N, 2505, -79.5, -33.05, -7
N, 2506, -79.5, -35.55, -7
N, 2507, -79.5, -38.1, -7
N, 2508, -79.5, -40.9, -7
N, 2509, -79.5, -43.9, -7
N, 2510, -79.5, -46.9, -7
N, 2511, -79.5, -49.9, -7
N, 2512, -79.5, -52.8, -7
N, 2513, -79.5, -55.7, -7
N, 2514, -79.5, -58.7, -7
N, 2515, -79.5, -61.3, -7
N, 2516, -79.5, -63.4, -7
N, 2517, -79.5, -65.5, -7
N, 2518, -79.5, -68.1, -7
N, 2519, -79.5, -71, -7
! ... 4 like lines cut

N, 2600, -100.5, -20, 0
N, 2601, -100.5, -21.35, 0
N, 2602, -100.5, -24.45, 0
N, 2603, -100.5, -27.95, 0
N, 2604, -100.5, -30.75, 0
N, 2605, -100.5, -33.05, 0
N, 2606, -100.5, -35.55, 0
N, 2607, -100.5, -38.1, 0
N, 2608, -100.5, -40.9, 0
N, 2609, -100.5, -43.9, 0
N, 2610, -100.5, -46.9, 0
N, 2611, -100.5, -49.9, 0
N, 2612, -100.5, -52.8, 0
N, 2613, -100.5, -55.7, 0
N, 2614, -100.5, -58.7, 0
N, 2615, -100.5, -61.3, 0
N, 2616, -100.5, -63.4, 0
N, 2617, -100.5, -65.5, 0
N, 2618, -100.5, -68.1, 0
N, 2619, -100.5, -71, 0
! ... 4 like lines cut

N, 2700, -93.5, -20, 0
N, 2701, -93.5, -21.35, 0
N, 2702, -93.5, -24.45, 0
N, 2703, -93.5, -27.95, 0
N, 2704, -93.5, -30.75, 0
N, 2705, -93.5, -33.05, 0
N, 2706, -93.5, -35.55, 0
N, 2707, -93.5, -38.1, 0
N, 2708, -93.5, -40.9, 0
N, 2709, -93.5, -43.9, 0
N, 2710, -93.5, -46.9, 0
N, 2711, -93.5, -49.9, 0
N, 2712, -93.5, -52.8, 0
N, 2713, -93.5, -55.7, 0
N, 2714, -93.5, -58.7, 0
N, 2715, -93.5, -61.3, 0
N, 2716, -93.5, -63.4, 0
N, 2717, -93.5, -65.5, 0
N, 2718, -93.5, -68.1, 0
N, 2719, -93.5, -71, 0
! ... 4 like lines cut

N, 2800, -86.5, -20, 0
N, 2801, -86.5, -21.35, 0
N, 2802, -86.5, -24.45, 0
N, 2803, -86.5, -27.95, 0
N, 2804, -86.5, -30.75, 0
N, 2805, -86.5, -33.05, 0
N, 2806, -86.5, -35.55, 0
N, 2807, -86.5, -38.1, 0
N, 2808, -86.5, -40.9, 0
N, 2809, -86.5, -43.9, 0
N, 2810, -86.5, -46.9, 0
N, 2811, -86.5, -49.9, 0
N, 2812, -86.5, -52.8, 0
N, 2813, -86.5, -55.7, 0
N, 2814, -86.5, -58.7, 0
N, 2815, -86.5, -61.3, 0
N, 2816, -86.5, -63.4, 0
N, 2817, -86.5, -65.5, 0
N, 2818, -86.5, -68.1, 0
N, 2819, -86.5, -71, 0
! ... 4 like lines cut

N, 2900, -79.5, -20, 0
N, 2901, -79.5, -21.35, 0
N, 2902, -79.5, -24.45, 0
N, 2903, -79.5, -27.95, 0
N, 2904, -79.5, -30.75, 0
N, 2905, -79.5, -33.05, 0
N, 2906, -79.5, -35.55, 0
N, 2907, -79.5, -38.1, 0
N, 2908, -79.5, -40.9, 0
N, 2909, -79.5, -43.9, 0
N, 2910, -79.5, -46.9, 0
N, 2911, -79.5, -49.9, 0
N, 2912, -79.5, -52.8, 0
N, 2913, -79.5, -55.7, 0
N, 2914, -79.5, -58.7, 0
N, 2915, -79.5, -61.3, 0
N, 2916, -79.5, -63.4, 0
N, 2917, -79.5, -65.5, 0
N, 2918, -79.5, -68.1, 0
N, 2919, -79.5, -71, 0
! ... 4 like lines cut

N, 3000, -100.5, -20, 7
N, 3001, -100.5, -21.35, 7
N, 3002, -100.5, -24.45, 7
N, 3003, -100.5, -27.95, 7
N, 3004, -100.5, -30.75, 7
N, 3005, -100.5, -33.05, 7
N, 3006, -100.5, -35.55, 7
N, 3007, -100.5, -38.1, 7
N, 3008, -100.5, -40.9, 7
N, 3009, -100.5, -43.9, 7
N, 3010, -100.5, -46.9, 7
N, 3011, -100.5, -49.9, 7
N, 3012, -100.5, -52.8, 7
N, 3013, -100.5, -55.7, 7
N, 3014, -100.5, -58.7, 7
N, 3015, -100.5, -61.3, 7
N, 3016, -100.5, -63.4, 7
N, 3017, -100.5, -65.5, 7
N, 3018, -100.5, -68.1, 7
N, 3019, -100.5, -71, 7
! ... 4 like lines cut

N, 3100, -93.5, -20, 7
N, 3101, -93.5, -21.35, 7
N, 3102, -93.5, -24.45, 7
N, 3103, -93.5, -27.95, 7
N, 3104, -93.5, -30.75, 7
N, 3105, -93.5, -33.05, 7
N, 3106, -93.5, -35.55, 7
N, 3107, -93.5, -38.1, 7
N, 3108, -93.5, -40.9, 7
N, 3109, -93.5, -43.9, 7
N, 3110, -93.5, -46.9, 7
N, 3111, -93.5, -49.9, 7
N, 3112, -93.5, -52.8, 7
N, 3113, -93.5, -55.7, 7
N, 3114, -93.5, -58.7, 7
N, 3115, -93.5, -61.3, 7
N, 3116, -93.5, -63.4, 7
N, 3117, -93.5, -65.5, 7
N, 3118, -93.5, -68.1, 7
N, 3119, -93.5, -71, 7
! ... 4 like lines cut

N, 3200, -86.5, -20, 7
N, 3201, -86.5, -21.35, 7
N, 3202, -86.5, -24.45, 7
N, 3203, -86.5, -27.95, 7
N, 3204, -86.5, -30.75, 7
N, 3205, -86.5, -33.05, 7
N, 3206, -86.5, -35.55, 7
N, 3207, -86.5, -38.1, 7
N, 3208, -86.5, -40.9, 7
N, 3209, -86.5, -43.9, 7
N, 3210, -86.5, -46.9, 7
N, 3211, -86.5, -49.9, 7
N, 3212, -86.5, -52.8, 7
N, 3213, -86.5, -55.7, 7
N, 3214, -86.5, -58.7, 7
N, 3215, -86.5, -61.3, 7
N, 3216, -86.5, -63.4, 7
N, 3217, -86.5, -65.5, 7
N, 3218, -86.5, -68.1, 7
N, 3219, -86.5, -71, 7
! ... 4 like lines cut

N, 3300, -79.5, -20, 7
N, 3301, -79.5, -21.35, 7
N, 3302, -79.5, -24.45, 7
N, 3303, -79.5, -27.95, 7
N, 3304, -79.5, -30.75, 7
N, 3305, -79.5, -33.05, 7
N, 3306, -79.5, -35.55, 7
N, 3307, -79.5, -38.1, 7
N, 3308, -79.5, -40.9, 7
N, 3309, -79.5, -43.9, 7
N, 3310, -79.5, -46.9, 7
N, 3311, -79.5, -49.9, 7
N, 3312, -79.5, -52.8, 7
N, 3313, -79.5, -55.7, 7
N, 3314, -79.5, -58.7, 7
N, 3315, -79.5, -61.3, 7
N, 3316, -79.5, -63.4, 7
N, 3317, -79.5, -65.5, 7
N, 3318, -79.5, -68.1, 7
N, 3319, -79.5, -71, 7
! ... 4 like lines cut

*do, j, 1, 23, 1
type, 1
mat, 5
real, 103
e, j+2199, j+2200
e, j+2299, j+2300
e, j+2399, j+2400
e, j+2499, j+2500
e, j+2599, j+2600
e, j+2699, j+2700
e, j+2799, j+2800
e, j+2899, j+2900
e, j+2999, j+3000
e, j+3099, j+3100
e, j+3199, j+3200
e, j+3299, j+3300
*enddo


!1717171710#0217171717171706
N, 3400, 79.5, -20, -7
N, 3401, 79.5, -21, -7
N, 3402, 79.5, -23.05, -7
N, 3403, 79.5, -25.85, -7
N, 3404, 79.5, -29.45, -7
N, 3405, 79.5, -32.8, -7
N, 3406, 79.5, -35.8, -7
N, 3407, 79.5, -38.5, -7
N, 3408, 79.5, -40.95, -7
N, 3409, 79.5, -43.7, -7
N, 3410, 79.5, -46.7, -7
N, 3411, 79.5, -49.7, -7
N, 3412, 79.5, -52.45, -7
N, 3413, 79.5, -55.2, -7
N, 3414, 79.5, -58.1, -7
N, 3415, 79.5, -60.65, -7
N, 3416, 79.5, -63.45, -7
N, 3417, 79.5, -66.5, -7
N, 3418, 79.5, -68.9, -7
N, 3419, 79.5, -70.95, -7
N, 3420, 79.5, -72, -7

N, 3500, 86.5, -20, -7
N, 3501, 86.5, -21, -7
N, 3502, 86.5, -23.05, -7
N, 3503, 86.5, -25.85, -7
N, 3504, 86.5, -29.45, -7
N, 3505, 86.5, -32.8, -7
N, 3506, 86.5, -35.8, -7
N, 3507, 86.5, -38.5, -7
N, 3508, 86.5, -40.95, -7
N, 3509, 86.5, -43.7, -7
N, 3510, 86.5, -46.7, -7
N, 3511, 86.5, -49.7, -7
N, 3512, 86.5, -52.45, -7
N, 3513, 86.5, -55.2, -7
N, 3514, 86.5, -58.1, -7
N, 3515, 86.5, -60.65, -7
N, 3516, 86.5, -63.45, -7
N, 3517, 86.5, -66.5, -7
N, 3518, 86.5, -68.9, -7
N, 3519, 86.5, -70.95, -7
N, 3520, 86.5, -72, -7

N, 3600, 93.5, -20, -7
N, 3601, 93.5, -21, -7
N, 3602, 93.5, -23.05, -7
N, 3603, 93.5, -25.85, -7
N, 3604, 93.5, -29.45, -7
N, 3605, 93.5, -32.8, -7
N, 3606, 93.5, -35.8, -7
N, 3607, 93.5, -38.5, -7
N, 3608, 93.5, -40.95, -7
N, 3609, 93.5, -43.7, -7
N, 3610, 93.5, -46.7, -7
N, 3611, 93.5, -49.7, -7
N, 3612, 93.5, -52.45, -7
N, 3613, 93.5, -55.2, -7
N, 3614, 93.5, -58.1, -7
N, 3615, 93.5, -60.65, -7
N, 3616, 93.5, -63.45, -7
N, 3617, 93.5, -66.5, -7
N, 3618, 93.5, -68.9, -7
N, 3619, 93.5, -70.95, -7
N, 3620, 93.5, -72, -7

N, 3700, 100.5, -20, -7
N, 3701, 100.5, -21, -7
N, 3702, 100.5, -23.05, -7
N, 3703, 100.5, -25.85, -7
N, 3704, 100.5, -29.45, -7
N, 3705, 100.5, -32.8, -7
N, 3706, 100.5, -35.8, -7
N, 3707, 100.5, -38.5, -7
N, 3708, 100.5, -40.95, -7
N, 3709, 100.5, -43.7, -7
N, 3710, 100.5, -46.7, -7
N, 3711, 100.5, -49.7, -7
N, 3712, 100.5, -52.45, -7
N, 3713, 100.5, -55.2, -7
N, 3714, 100.5, -58.1, -7
N, 3715, 100.5, -60.65, -7
N, 3716, 100.5, -63.45, -7
N, 3717, 100.5, -66.5, -7
N, 3718, 100.5, -68.9, -7
N, 3719, 100.5, -70.95, -7
N, 3720, 100.5, -72, -7

N, 3800, 79.5, -20, 0
N, 3801, 79.5, -21, 0
N, 3802, 79.5, -23.05, 0
N, 3803, 79.5, -25.85, 0
N, 3804, 79.5, -29.45, 0
N, 3805, 79.5, -32.8, 0
N, 3806, 79.5, -35.8, 0
N, 3807, 79.5, -38.5, 0
N, 3808, 79.5, -40.95, 0
N, 3809, 79.5, -43.7, 0
N, 3810, 79.5, -46.7, 0
N, 3811, 79.5, -49.7, 0
N, 3812, 79.5, -52.45, 0
N, 3813, 79.5, -55.2, 0
N, 3814, 79.5, -58.1, 0
N, 3815, 79.5, -60.65, 0
N, 3816, 79.5, -63.45, 0
N, 3817, 79.5, -66.5, 0
N, 3818, 79.5, -68.9, 0
N, 3819, 79.5, -70.95, 0
N, 3820, 79.5, -72, 0

N, 3900, 86.5, -20, 0
N, 3901, 86.5, -21, 0
N, 3902, 86.5, -23.05, 0
N, 3903, 86.5, -25.85, 0
N, 3904, 86.5, -29.45, 0
N, 3905, 86.5, -32.8, 0
N, 3906, 86.5, -35.8, 0
N, 3907, 86.5, -38.5, 0
N, 3908, 86.5, -40.95, 0
N, 3909, 86.5, -43.7, 0
N, 3910, 86.5, -46.7, 0
N, 3911, 86.5, -49.7, 0
N, 3912, 86.5, -52.45, 0
N, 3913, 86.5, -55.2, 0
N, 3914, 86.5, -58.1, 0
N, 3915, 86.5, -60.65, 0
N, 3916, 86.5, -63.45, 0
N, 3917, 86.5, -66.5, 0
N, 3918, 86.5, -68.9, 0
N, 3919, 86.5, -70.95, 0
N, 3920, 86.5, -72, 0

N, 4000, 93.5, -20, 0
N, 4001, 93.5, -21, 0
N, 4002, 93.5, -23.05, 0
N, 4003, 93.5, -25.85, 0
N, 4004, 93.5, -29.45, 0
N, 4005, 93.5, -32.8, 0
N, 4006, 93.5, -35.8, 0
N, 4007, 93.5, -38.5, 0
N, 4008, 93.5, -40.95, 0
N, 4009, 93.5, -43.7, 0
N, 4010, 93.5, -46.7, 0
N, 4011, 93.5, -49.7, 0
N, 4012, 93.5, -52.45, 0
N, 4013, 93.5, -55.2, 0
N, 4014, 93.5, -58.1, 0
N, 4015, 93.5, -60.65, 0
N, 4016, 93.5, -63.45, 0
N, 4017, 93.5, -66.5, 0
N, 4018, 93.5, -68.9, 0
N, 4019, 93.5, -70.95, 0
N, 4020, 93.5, -72, 0

N, 4100, 100.5, -20, 0
N, 4101, 100.5, -21, 0
N, 4102, 100.5, -23.05, 0
N, 4103, 100.5, -25.85, 0
N, 4104, 100.5, -29.45, 0
N, 4105, 100.5, -32.8, 0
N, 4106, 100.5, -35.8, 0
N, 4107, 100.5, -38.5, 0
N, 4108, 100.5, -40.95, 0
N, 4109, 100.5, -43.7, 0
N, 4110, 100.5, -46.7, 0
N, 4111, 100.5, -49.7, 0
N, 4112, 100.5, -52.45, 0
N, 4113, 100.5, -55.2, 0
N, 4114, 100.5, -58.1, 0
N, 4115, 100.5, -60.65, 0
N, 4116, 100.5, -63.45, 0
N, 4117, 100.5, -66.5, 0
N, 4118, 100.5, -68.9, 0
N, 4119, 100.5, -70.95, 0
N, 4120, 100.5, -72, 0

N, 4200, 79.5, -20, 7
N, 4201, 79.5, -21, 7
N, 4202, 79.5, -23.05, 7
N, 4203, 79.5, -25.85, 7
N, 4204, 79.5, -29.45, 7
N, 4205, 79.5, -32.8, 7
N, 4206, 79.5, -35.8, 7
N, 4207, 79.5, -38.5, 7
N, 4208, 79.5, -40.95, 7
N, 4209, 79.5, -43.7, 7
N, 4210, 79.5, -46.7, 7
N, 4211, 79.5, -49.7, 7
N, 4212, 79.5, -52.45, 7
N, 4213, 79.5, -55.2, 7
N, 4214, 79.5, -58.1, 7
N, 4215, 79.5, -60.65, 7
N, 4216, 79.5, -63.45, 7
N, 4217, 79.5, -66.5, 7
N, 4218, 79.5, -68.9, 7
N, 4219, 79.5, -70.95, 7
N, 4220, 79.5, -72, 7

N, 4300, 86.5, -20, 7
N, 4301, 86.5, -21, 7
N, 4302, 86.5, -23.05, 7
N, 4303, 86.5, -25.85, 7
N, 4304, 86.5, -29.45, 7
N, 4305, 86.5, -32.8, 7
N, 4306, 86.5, -35.8, 7
N, 4307, 86.5, -38.5, 7
N, 4308, 86.5, -40.95, 7
N, 4309, 86.5, -43.7, 7
N, 4310, 86.5, -46.7, 7
N, 4311, 86.5, -49.7, 7
N, 4312, 86.5, -52.45, 7
N, 4313, 86.5, -55.2, 7
N, 4314, 86.5, -58.1, 7
N, 4315, 86.5, -60.65, 7
N, 4316, 86.5, -63.45, 7
N, 4317, 86.5, -66.5, 7
N, 4318, 86.5, -68.9, 7
N, 4319, 86.5, -70.95, 7
N, 4320, 86.5, -72, 7

N, 4400, 93.5, -20, 7
N, 4401, 93.5, -21, 7
N, 4402, 93.5, -23.05, 7
N, 4403, 93.5, -25.85, 7
N, 4404, 93.5, -29.45, 7
N, 4405, 93.5, -32.8, 7
N, 4406, 93.5, -35.8, 7
N, 4407, 93.5, -38.5, 7
N, 4408, 93.5, -40.95, 7
N, 4409, 93.5, -43.7, 7
N, 4410, 93.5, -46.7, 7
N, 4411, 93.5, -49.7, 7
N, 4412, 93.5, -52.45, 7
N, 4413, 93.5, -55.2, 7
N, 4414, 93.5, -58.1, 7
N, 4415, 93.5, -60.65, 7
N, 4416, 93.5, -63.45, 7
N, 4417, 93.5, -66.5, 7
N, 4418, 93.5, -68.9, 7
N, 4419, 93.5, -70.95, 7
N, 4420, 93.5, -72, 7

N, 4500, 100.5, -20, 7
N, 4501, 100.5, -21, 7
N, 4502, 100.5, -23.05, 7
N, 4503, 100.5, -25.85, 7
N, 4504, 100.5, -29.45, 7
N, 4505, 100.5, -32.8, 7
N, 4506, 100.5, -35.8, 7
N, 4507, 100.5, -38.5, 7
N, 4508, 100.5, -40.95, 7
N, 4509, 100.5, -43.7, 7
N, 4510, 100.5, -46.7, 7
N, 4511, 100.5, -49.7, 7
N, 4512, 100.5, -52.45, 7
N, 4513, 100.5, -55.2, 7
N, 4514, 100.5, -58.1, 7
N, 4515, 100.5, -60.65, 7
N, 4516, 100.5, -63.45, 7
N, 4517, 100.5, -66.5, 7
N, 4518, 100.5, -68.9, 7
N, 4519, 100.5, -70.95, 7
N, 4520, 100.5, -72, 7

*do, j, 1, 20, 1
type, 1
mat, 5
real, 103
e, j+3399, j+3400
e, j+3499, j+3500
e, j+3599, j+3600
e, j+3699, j+3700
e, j+3799, j+3800
e, j+3899, j+3900
e, j+3999, j+4000
e, j+4099, j+4100
e, j+4199, j+4200
e, j+4299, j+4300
e, j+4399, j+4400
e, j+4499, j+4500
*enddo


!17171717171117
N, 600, -159.6, 5.75, 1.3
N, 601, -150, 5.75, 1.3
N, 602, -140.4, 5.75, 1.3
N, 603, -130.8, 5.75, 1.3
N, 604, -121.2, 5.75, 1.3
N, 605, -111.6, 5.75, 1.3
N, 606, -159.6, 5.75, -1.3
N, 607, -150, 5.75, -1.3
N, 608, -140.4, 5.75, -1.3
N, 609, -130.8, 5.75, -1.3
N, 610, -121.2, 5.75, -1.3
N, 611, -111.6, 5.75, -1.3
N, 612, -66, 5.75, 1.3
N, 613, -54, 5.75, 1.3
N, 614, -42, 5.75, 1.3
N, 615, -30, 5.75, 1.3
N, 616, -18, 5.75, 1.3
N, 617, -6, 5.75, 1.3
N, 618, -66, 5.75, -1.3
N, 619, -54, 5.75, -1.3
! ... 28 like lines cut

N, 648, -92, 49.571, 1.3
N, 649, -92, 42.212, 1.3
N, 650, -92, 35.343, 1.3
N, 651, -92, 29.171, 1.3
N, 652, -92, 23.066, 1.3
N, 653, -92, 16.953, 1.3
N, 654, -92, 49.571, -1.3
N, 655, -92, 42.212, -1.3
N, 656, -92, 35.343, -1.3
N, 657, -92, 29.171, -1.3
N, 658, -92, 23.066, -1.3
N, 659, -92, 16.953, -1.3
N, 660, -87.139, 16.953, 1.3
N, 661, -86.535, 23.066, 1.3
N, 662, -85.931, 29.171, 1.3
N, 663, -85.498, 35.343, 1.3
N, 664, -86.389, 42.212, 1.3
N, 665, -88.185, 49.571, 1.3
N, 666, -87.139, 16.953, -1.3
N, 667, -86.535, 23.066, -1.3
! ... 28 like lines cut

!17171717171706
*do, j, 1, 6, 1
type, 2
mat, 7
real, 116-j
e, j+599, j+647
e, j+599+6, j+647+6
*enddo

*do, j, 1, 6, 1
type, 2
mat, 7
real, 115+j
e, j+599+6+6, j+647+6+6
e, j+599+6+6+6, j+647+6+6+6
*enddo

*do, j, 1, 6, 1
type, 2
mat, 7
real, 116-j
e, j+599+6+6+6+6, j+647+6+6+6+6
e, j+599+6+6+6+6+6, j+647+6+6+6+6+6
*enddo

*do, j, 1, 6, 1
type, 2
mat, 7
real, 115+j
e, j+599+6+6+6+6+6+6, j+647+6+6+6+6+6+6
e, j+599+6+6+6+6+6+6+6, j+647+6+6+6+6+6+6+6
*enddo



!171706171117171806
N, 700, -170, -15.653, -12.375
N, 701, -170, -18.653, -12.375
N, 702, -170, -15.653, 12.375
N, 703, -170, -18.653, 12.375
N, 704, 170, -15.653, -12.375
N, 705, 170, -18.653, -12.375
N, 706, 170, -15.653, 12.375
N, 707, 170, -18.653, 12.375
N, 708, -90, -15, 0
N, 709, -90, -20, 0
N, 710, 90, -15, 0
N, 711, 90, -20, 0

type, 1
mat, 4
real, 6
e, 708, 709
e, 710, 711

type, 1
mat, 4
real, 7
e, 700, 701
e, 702, 703
e, 704, 705
e, 706, 707


! !1717171717011706
! N, 712, -170, 1, -12.375
! N, 713, -170, -4.5, -12.375
! N, 714, -170, -15.653, -12.375
! N, 715, -170, 1, 12.375
! N, 716, -170, -4.5, 12.375
! N, 717, -170, -15.653, 12.375
! N, 718, 170, 1, -12.375
! N, 719, 170, -4.5, -12.375
! N, 720, 170, -15.653, -12.375
! N, 721, 170, 1, 12.375
! N, 722, 170, -4.5, 12.375
! N, 723, 170, -15.653, 12.375

! type, 1
! mat, 3
! real, 8
! e, 712, 713
! e, 715, 716
! e, 718, 719
! e, 721, 722

! type, 1
! mat, 3
! real, 8
! e, 713, 714
! e, 716, 717
! e, 719, 720
! e, 722, 723


! N, 724, -90, 0, 0
! N, 725, -90, -5, 0
! N, 726, -90, -8.5, 0
! N, 727, -90, -12, 0
! N, 728, -90, -13.5, 0
! N, 729, -90, -15, 0

! N, 730, 90, 0, 0
! N, 731, 90, -5, 0
! N, 732, 90, -8.5, 0
! N, 733, 90, -12, 0
! N, 734, 90, -13.5, 0
! N, 735, 90, -15, 0

! type, 1
! mat, 3
! real, 14
! e, 724, 725
! e, 730, 731

! type, 1
! mat, 3
! real, 14
! e, 725, 726
! e, 731, 732

! type, 1
! mat, 3
! real, 12
! e, 726, 727
! e, 732, 733

! type, 1
! mat, 3
! real, 11
! e, 727, 728
! e, 733, 734

! type, 1
! mat, 3
! real, 10
! e, 728, 729
! e, 734, 735


N, 7001, -170, -15.653, 12.375
N, 7002, -170, -14.5377, 12.375
N, 7003, -170, -13.4224, 12.375
N, 7004, -170, -12.3071, 12.375
N, 7005, -170, -11.1918, 12.375
N, 7006, -170, -10.0765, 12.375
N, 7007, -170, -8.9612, 12.375
N, 7008, -170, -7.8459, 12.375
N, 7009, -170, -6.7306, 12.375
N, 7010, -170, -5.6153, 12.375
N, 7011, -170, -4.5, 12.375
N, 7012, -170, -3.4, 12.375
N, 7013, -170, -2.3, 12.375
N, 7014, -170, -1.2, 12.375
N, 7015, -170, -0.1, 12.375
N, 7016, -170, 1, 12.375

N, 7018, -170, -15.653, -12.375
N, 7019, -170, -14.5377, -12.375
N, 7020, -170, -13.4224, -12.375
N, 7021, -170, -12.3071, -12.375
N, 7022, -170, -11.1918, -12.375
N, 7023, -170, -10.0765, -12.375
N, 7024, -170, -8.9612, -12.375
N, 7025, -170, -7.8459, -12.375
N, 7026, -170, -6.7306, -12.375
N, 7027, -170, -5.6153, -12.375
N, 7028, -170, -4.5, -12.375
N, 7029, -170, -3.4, -12.375
N, 7030, -170, -2.3, -12.375
N, 7031, -170, -1.2, -12.375
N, 7032, -170, -0.1, -12.375
N, 7033, -170, 1, -12.375

N, 7035, 170, -15.653, 12.375
N, 7036, 170, -14.5377, 12.375
N, 7037, 170, -13.4224, 12.375
N, 7038, 170, -12.3071, 12.375
N, 7039, 170, -11.1918, 12.375
N, 7040, 170, -10.0765, 12.375
N, 7041, 170, -8.9612, 12.375
N, 7042, 170, -7.8459, 12.375
N, 7043, 170, -6.7306, 12.375
N, 7044, 170, -5.6153, 12.375
N, 7045, 170, -4.5, 12.375
N, 7046, 170, -3.4, 12.375
N, 7047, 170, -2.3, 12.375
N, 7048, 170, -1.2, 12.375
N, 7049, 170, -0.1, 12.375
N, 7050, 170, 1, 12.375

N, 7052, 170, -15.653, -12.375
N, 7053, 170, -14.5377, -12.375
N, 7054, 170, -13.4224, -12.375
N, 7055, 170, -12.3071, -12.375
N, 7056, 170, -11.1918, -12.375
N, 7057, 170, -10.0765, -12.375
N, 7058, 170, -8.9612, -12.375
N, 7059, 170, -7.8459, -12.375
N, 7060, 170, -6.7306, -12.375
N, 7061, 170, -5.6153, -12.375
N, 7062, 170, -4.5, -12.375
N, 7063, 170, -3.4, -12.375
N, 7064, 170, -2.3, -12.375
N, 7065, 170, -1.2, -12.375
N, 7066, 170, -0.1, -12.375
N, 7067, 170, 1, -12.375

N, 7069, -90, -15, 0
N, 7070, -90, -13.5, 0
N, 7071, -90, -12, 0
N, 7072, -90, -11, 0
N, 7073, -90, -10, 0
N, 7074, -90, -9, 0
N, 7075, -90, -8, 0
N, 7076, -90, -7, 0
N, 7077, -90, -5.833333, 0
N, 7078, -90, -4.666667, 0
N, 7079, -90, -3.5, 0
N, 7080, -90, -2.333333, 0
N, 7081, -90, -1.166667, 0
N, 7082, -90, 0, 0

N, 7084, 90, -15, 0
N, 7085, 90, -13.5, 0
N, 7086, 90, -12, 0
N, 7087, 90, -11, 0
N, 7088, 90, -10, 0
N, 7089, 90, -9, 0
N, 7090, 90, -8, 0
N, 7091, 90, -7, 0
N, 7092, 90, -5.833333, 0
N, 7093, 90, -4.666667, 0
N, 7094, 90, -3.5, 0
N, 7095, 90, -2.333333, 0
N, 7096, 90, -1.166667, 0
N, 7097, 90, 0, 0

type, 1
mat, 3
real, 8
*do,i,1,15
e, 7017-i,7016-i
e, 7034-i,7033-i
e, 7051-i,7050-i
e, 7068-i,7067-i
*enddo

type, 1
mat, 3
real, 14
*do,i,1,7
e, 7083-i,7082-i
e, 7098-i,7097-i
*enddo

type, 1
mat, 3
real, 12
*do,i,1,4
e, 7076-i,7075-i
e, 7091-i,7090-i
*enddo

type, 1
mat, 3
real, 11
e, 7071,7070
e, 7086,7085

type, 1
mat, 3
real, 10
e, 7070,7069
e, 7085,7084



!04170417081717171717171717
*do, j, 1, 15, 1
type, 3
real, 2000+j
e, 7000+j
e, 7017+j
e, 7034+j
e, 7051+j
*enddo

*do, j, 1, 14, 1
type, 3
real, 2015+j
e, 7068+j
e, 7083+j
*enddo




!171717171717171706
!9#17171717
N, 736, -90, 65, 0
N, 737, -90, 63.72, 0
N, 738, -90, 60.72, 0
N, 739, -90, 58.22, 0
N, 740, -90, 55.72, 0
N, 741, -90, 53.22, 0
N, 742, -90, 50.73, 0
N, 743, -90, 49.58, 0
N, 744, -90, 48.28, 0
N, 745, -90, 47.58, 0
N, 746, -90, 45.78, 0
N, 747, -90, 45, 0
N, 748, -90, 44.0115, 0
N, 749, -90, 42.2115, 0
N, 750, -90, 40.9115, 0
N, 751, -90, 40.2115, 0
N, 752, -90, 38.6115, 0
N, 753, -90, 36.9427, 0
N, 754, -90, 35.3427, 0
N, 755, -90, 34.0427, 0
! ... 23 like lines cut


type, 1
mat, 3
real, 15
*do, j, 736, 777
e, j, j+1
*enddo

!10#17171717
N, 6000, 90, 65, 0
N, 6001, 90, 63.72, 0
N, 6002, 90, 60.72, 0
N, 6003, 90, 58.22, 0
N, 6004, 90, 55.72, 0
N, 6005, 90, 53.22, 0
N, 6006, 90, 50.73, 0
N, 6007, 90, 49.58, 0
N, 6008, 90, 48.28, 0
N, 6009, 90, 47.58, 0
N, 6010, 90, 45.78, 0
N, 6011, 90, 45, 0
N, 6012, 90, 44.0115, 0
N, 6013, 90, 42.2115, 0
N, 6014, 90, 40.9115, 0
N, 6015, 90, 40.2115, 0
N, 6016, 90, 38.6115, 0
N, 6017, 90, 36.9427, 0
N, 6018, 90, 35.3427, 0
N, 6019, 90, 34.0427, 0
! ... 23 like lines cut

type, 1
mat, 3
real, 15
*do, j, 6000, 6041
e, j, j+1
*enddo

!1717171717171717171717071717171717
type, 4
mat, 6
real, 101
e, 9, 600
e, 14, 601
e, 19, 602
e, 24, 603
e, 29, 604
e, 34, 605
e, 9, 606
e, 14, 607
e, 19, 608
e, 24, 609
e, 29, 610
e, 34, 611
e, 59, 612
e, 65, 613
e, 71, 614
e, 77, 615
e, 83, 616
e, 89, 617
e, 59, 618
e, 65, 619
! ... 28 like lines cut

!1717171717171717171717071717171717
e, 743, 648  $	e, 743, 654  $	e, 743, 671  $	e, 743, 665
e, 749, 649  $	e, 749, 655  $	e, 749, 670  $	e, 749, 664
e, 754, 650  $	e, 754, 656  $	e, 754, 669  $	e, 754, 663
e, 759, 651  $	e, 759, 657  $	e, 759, 668  $	e, 759, 662
e, 763, 652  $	e, 763, 658  $	e, 763, 667  $	e, 763, 661
e, 767, 653  $	e, 767, 659  $	e, 767, 666  $	e, 767, 660
			
e, 6007, 672  $	e, 6007, 678  $	e, 6007, 695  $	e, 6007, 689
e, 6013, 673  $	e, 6013, 679  $	e, 6013, 694  $	e, 6013, 688
e, 6018, 674  $	e, 6018, 680  $	e, 6018, 693  $	e, 6018, 687
e, 6023, 675  $	e, 6023, 681  $	e, 6023, 692  $	e, 6023, 686
e, 6027, 676  $	e, 6027, 682  $	e, 6027, 691  $	e, 6027, 685
e, 6031, 677  $	e, 6031, 683  $	e, 6031, 690  $	e, 6031, 684

!1717061717021717171717171705171704171703071717171717
type, 4
mat, 6
real, 101
*do, j, 1, 12
e, 709, (j-1)*100+2200
e, 711, (j-1)*100+3400
*enddo

type, 4
mat, 6
real, 101
!type, 5
*do, j, 1, 6
e, 701, (j-1)*100+1000
e, 703, (j-1)*100+1600
e, 705, (j-1)*100+4600
e, 707, (j-1)*100+5200
*enddo

!171717171717171717001117
!1717170317171702171717171706171117
!8#171711#-L0217171711171717
NSEL,S,LOC,Z,-17.375
NGEN,2,10000,ALL,,,,,-1
!8#171711#-L0217061711171717
NSEL,S,LOC,Z,-7.375
NGEN,2,10000,ALL,,,,,1
!8#171711#-R0217171711171717
NSEL,S,LOC,Z,7.375
NGEN,2,10000,ALL,,,,,-1
!8#171711#-R0217061711171717
NSEL,S,LOC,Z,17.375
NGEN,2,10000,ALL,,,,,1
!9#171710#-L0217171711171717
NSEL,S,LOC,Z,-7
NGEN,2,10000,ALL,,,,,-1
!9#171710#-R0217061711171717
NSEL,S,LOC,Z,7
NGEN,2,10000,ALL,,,,,1


!8#-L1717R02С1717061711171717
NSEL,S,LOC,X,-172.5
NGEN,2,20000,ALL,,,-1
!8#-L1717R0217171717061711171717
NSEL,S,LOC,X,-167.5
NGEN,2,20000,ALL,,,1
!11#-L1717R0217171717061711171717
NSEL,S,LOC,X,172.5
NGEN,2,20000,ALL,,,1
!11#-L1717R02С1717061711171717
NSEL,S,LOC,X,167.5
NGEN,2,20000,ALL,,,-1

!9#-L1717R02С1717061711171717
NSEL,S,LOC,X,-100.5
NGEN,2,20000,ALL,,,-1
!9#-L1717R0217171717061711171717
NSEL,S,LOC,X,-79.5
NGEN,2,20000,ALL,,,1
!10#-L1717R0217171717061711171717
NSEL,S,LOC,X,100.5
NGEN,2,20000,ALL,,,1
!10#-L1717R02С1717061711171717
NSEL,S,LOC,X,79.5
NGEN,2,20000,ALL,,,-1

NSEL, ALL

!171717171702170617171717
!8#021717
*do, i, 1, 23, 1
type, 6
real, 200+i   !0317171717
*do, j, 1, 6 ,1
e, 20000+1000+(2*j-2)*100+i, 1000+(2*j-2)*100+i
e, 1000+(2*j-2)*100+i, 1000+(2*j-1)*100+i
e, 1000+(2*j-1)*100+i, 20000+1000+(2*j-1)*100+i
*enddo
*enddo

*do, i, 1, 23, 1
type, 6
real, 300+i   !171717171717
e, 11000+i, 1000+i
e, 1000+i, 1200+i
e, 1200+i, 1400+i
e, 1400+i, 11400+i

e, 11600+i, 1600+i
e, 1600+i, 1800+i
e, 1800+i, 2000+i
e, 2000+i, 12000+i

e, 11100+i, 1100+i
e, 1100+i, 1300+i
e, 1300+i, 1500+i
e, 1500+i, 11500+i

e, 11700+i, 1700+i
e, 1700+i, 1900+i
e, 1900+i, 2100+i
e, 2100+i, 12100+i
*enddo

!11#021717171717171717
*do, i, 1, 25, 1
type, 6
real, 800+i   !0317171717
*do, j, 1, 6 ,1
e, 20000+4600+(2*j-2)*100+i, 4600+(2*j-2)*100+i
e, 4600+(2*j-2)*100+i, 4600+(2*j-1)*100+i
e, 4600+(2*j-1)*100+i, 20000+4600+(2*j-1)*100+i
*enddo
*enddo

*do, i, 1, 25, 1
type, 6
real, 900+i   !171717171717
e, 14600+i, 4600+i
e, 4600+i, 4800+i
e, 4800+i, 5000+i
e, 5000+i, 15000+i

e, 15200+i, 5200+i
e, 5200+i, 5400+i
e, 5400+i, 5600+i
e, 5600+i, 15600+i

e, 14700+i, 4700+i
e, 4700+i, 4900+i
e, 4900+i, 5100+i
e, 5100+i, 15100+i

e, 15300+i, 5300+i
e, 5300+i, 5500+i
e, 5500+i, 5700+i
e, 5700+i, 15700+i
*enddo

!9#021717171717171717
*do, i, 1, 22, 1
type, 6
real, 400+i   !0317171717
e, 22200+i, 2200+i$	e, 2200+i, 2300+i$	e, 2300+i, 2400+i$	e, 2400+i, 2500+i$	e, 2500+i, 22500+i
e, 22600+i, 2600+i$	e, 2600+i, 2700+i$	e, 2700+i, 2800+i$	e, 2800+i, 2900+i$	e, 2900+i, 22900+i
e, 23000+i, 3000+i$	e, 3000+i, 3100+i$	e, 3100+i, 3200+i$	e, 3200+i, 3300+i$	e, 3300+i, 23300+i
*enddo

*do, i, 1, 22, 1
type, 6
real, 500+i   !171717171717
e, 12200+i, 2200+i$	e, 12300+i, 2300+i$	e, 12400+i, 2400+i$	e, 12500+i, 2500+i
e, 2200+i, 2600+i$	e, 2300+i, 2700+i$	e, 2400+i, 2800+i$	e, 2500+i, 2900+i
e, 2600+i, 3000+i$	e, 2700+i, 3100+i$	e, 2800+i, 3200+i$	e, 2900+i, 3300+i
e, 3000+i, 13000+i$	e, 3100+i, 13100+i$	e, 3200+i, 13200+i$	e, 3300+i, 13300+i
*enddo

!10#021717171717171717
*do, i, 1, 19, 1
type, 6
real, 600+i   !0317171717
e, 23400+i, 3400+i$	e, 3400+i, 3500+i$	e, 3500+i, 3600+i$	e, 3600+i, 3700+i$	e, 3700+i, 23700+i
e, 23800+i, 3800+i$	e, 3800+i, 3900+i$	e, 3900+i, 4000+i$	e, 4000+i, 4100+i$	e, 4100+i, 24100+i
e, 24200+i, 4200+i$	e, 4200+i, 4300+i$	e, 4300+i, 4400+i$	e, 4400+i, 4500+i$	e, 4500+i, 24500+i
*enddo

*do, i, 1, 19, 1
type, 6
real, 700+i   !171717171717
e, 13400+i, 3400+i$	e, 13500+i, 3500+i$	e, 13600+i, 3600+i$	e, 13700+i, 3700+i
e, 3400+i, 3800+i$	e, 3500+i, 3900+i$	e, 3600+i, 4000+i$	e, 3700+i, 4100+i
e, 3800+i, 4200+i$	e, 3900+i, 4300+i$	e, 4000+i, 4400+i$	e, 4100+i, 4500+i
e, 4200+i, 14200+i$	e, 4300+i, 14300+i$	e, 4400+i, 14400+i$	e, 4500+i, 14500+i
*enddo

!011717171717171117
NSEL, ALL
NDELE, ALL

171717171711171717170317171717
8#
CP, 1, UY, 1, 7016, 7033
CP, 2, UZ, 1, 1, 7016, 7033
!11#
CP, 3, UY, 185, 7050, 7067
CP, 4, UZ, 185, 7050, 7067
!9#
CP, 5, UY, 46, 777
!10#
CP, 6, UY, 140, 6041

! type, 7
! real, 3001
! e, 1,7016
! e, 1,7033
! e, 185,7050
! e, 185,7067
! e, 46,777
! e,140,6041

! type, 8
! real, 3002
! e, 1,7016
! e, 1,7033
! e, 185,7050
! e, 185,7067
! e, 46,777
! e,140,6041

! type, 9
! real, 3002
! e, 1,7016
! e, 1,7033
! e, 185,7050
! e, 185,7067
! e, 46,777
! e,140,6041

!171717171701171717061716171711171717170317171705171704171717001717161717111717Ч17170517171717
!CP, NEXT, UX, 724, 778 $ CP, NEXT, UY, 724, 778 $ CP, NEXT, UZ, 724, 778 $ CP, NEXT, ROTX, 724, 778 $ CP, NEXT, ROTY, 724, 778 $ CP, NEXT, ROTZ, 724, 778
!CP, NEXT, UX, 730, 6042 $ CP, NEXT, UY, 730, 6042 $ CP, NEXT, UZ, 730, 6042 $ CP, NEXT, ROTX, 730, 6042 $ CP, NEXT, ROTY, 730, 6042 $ CP, NEXT, ROTZ, 730, 6042
!CP, NEXT, UX, 700, 714 $ CP, NEXT, UY, 700, 714 $ CP, NEXT, UZ, 700, 714 $ CP, NEXT, ROTX, 700, 714 $ CP, NEXT, ROTY, 700, 714 $ CP, NEXT, ROTZ, 700, 714
!CP, NEXT, UX, 702, 717 $ CP, NEXT, UY, 702, 717 $ CP, NEXT, UZ, 702, 717 $ CP, NEXT, ROTX, 702, 717 $ CP, NEXT, ROTY, 702, 717 $ CP, NEXT, ROTZ, 702, 717
!CP, NEXT, UX, 708, 729 $ CP, NEXT, UY, 708, 729 $ CP, NEXT, UZ, 708, 729 $ CP, NEXT, ROTX, 708, 729 $ CP, NEXT, ROTY, 708, 729 $ CP, NEXT, ROTZ, 708, 729
!CP, NEXT, UX, 710, 735 $ CP, NEXT, UY, 710, 735 $ CP, NEXT, UZ, 710, 735 $ CP, NEXT, ROTX, 710, 735 $ CP, NEXT, ROTY, 710, 735 $ CP, NEXT, ROTZ, 710, 735
!CP, NEXT, UX, 704, 720 $ CP, NEXT, UY, 704, 720 $ CP, NEXT, UZ, 704, 720 $ CP, NEXT, ROTX, 704, 720 $ CP, NEXT, ROTY, 704, 720 $ CP, NEXT, ROTZ, 704, 720
!CP, NEXT, UX, 706, 723 $ CP, NEXT, UY, 706, 723 $ CP, NEXT, UZ, 706, 723 $ CP, NEXT, ROTX, 706, 723 $ CP, NEXT, ROTY, 706, 723 $ CP, NEXT, ROTZ, 706, 723

nummrg, node, , , , low     !170017171617171706171117
numcmp, node                !09171717170617111707171717

/ESHAPE,0
finish 


!---------171717--------------------!
/solu
!0417171717171717171717171117191704171717171717-170717
NSEL, NONE                  !171717051717
NSEL,S,LOC,Z,-17.375-1
NSEL,A,LOC,Z,-7.375+1
NSEL,A,LOC,Z,-(-7.375+1)
NSEL,A,LOC,Z,-(-17.375-1)
NSEL,A,LOC,Z,7+1
NSEL,A,LOC,Z,-(7+1)

NSEL,A,LOC,X,-172.5-1
NSEL,A,LOC,X,-167.5+1
NSEL,A,LOC,X,-(-172.5-1)
NSEL,A,LOC,X,-(-167.5+1)
NSEL,A,LOC,X,-100.5-1
NSEL,A,LOC,X,-79.5+1
NSEL,A,LOC,X,-(-100.5-1)
NSEL,A,LOC,X,-(-79.5+1)
NSEL,A,LOC,Y,-79.653, -86.653, -72, -82

NSEL,U,LOC,Y,5.75
NSEL,U,LOC,Y,10.75
D, ALL, ALL
NSEL,ALL
finish
! /solu
! !***********17171717171717***********
! antype,static                   !1717171717171705171717171717171717
! allsel
! ACEL,,9.806                     !17171702171717
! nlgeom,ON                       !170017171717
! !sstif,on                       !17171717081717170717Ч08
! TIME,1
! lumpm,on
! NSUBST,1,0,0,0                 !170817171017011717051717
! OUTRES,all,all
! solve
! finish

! !***********0000171717***********
! /solu
! antype,modal                    !171717171717170517000017171717
! nmode=100                        !000017171717
! modopt,lanb,nmode               !0517170517171717170917171717171700nmode1717
! !modopt, subsp, nmode, 0, 100  	!051717170308591717171700nmode17011701170817Χ0~100HZ
! !mxpand,nmode                   !0000171705nmode1717
! !pstres,on                       !17170008171717171717
! /out,mode,txt                   !171717mode.txt170417
! solve
! finish


!***********021701171717***********
*dim,acex,table,2500,1
*dim,acey,table,2500,1
*dim,time,table,2500,1
*creat,ff1,txt
*vread,acex(1,1),elcx,txt,,1
(e16.6)
*vread,acex(1,0),time,txt,,1
(e17.6)
acex(0,1)=1
*end
/input,ff1,txt

*creat,ff2,txt
*vread,acey(1,1),elcy,txt,,1
(e16.6)
*vread,acey(1,0),time,txt,,1
(e17.6)
acey(0,1)=1
*end
/input,ff2,txt

/solu
antype,trans
trnopt,full
*do,t,0.02,40,0.02
TIME,t
alphad,0.042
betad,0.022
timint,on
acel,acex(t),0,0
nsel,all
solve
*enddo






